tests/fuzzer/corpus_json/21_random_004.json
{
  "version": "1.0",
  "type": "input",
  "is_batch": false,
  "attributes": {},
  "data": {
    "node": [
      {
        "id": 0,
        "u_rated": 10000.0
      },
      {
        "id": 1,
        "u_rated": 10000.0
      },
      {
        "id": 2,
        "u_rated": 10000.0
      },
      {
        "id": 3,
        "u_rated": 10000.0
      },
      {
        "id": 4,
        "u_rated": 10000.0
      }
    ],
    "source": [
      {
        "id": 5,
        "node": 0,
        "status": 1,
        "u_ref": 0.9792116485221363,
        "u_ref_angle": 0.0,
        "sk": 103255717.62729272,
        "rx_ratio": 0.07748613540120514,
        "z01_ratio": 1.0
      },
      {
        "id": 6,
        "node": 4,
        "status": 1,
        "u_ref": 1.0,
        "u_ref_angle": 0.0,
        "sk": 401650855.38362634,
        "rx_ratio": 0.1,
        "z01_ratio": 1.0
      }
    ],
    "line": [
      {
        "id": 7,
        "from_node": 0,
        "to_node": 1,
        "from_status": 1,
        "to_status": 1,
        "r1": 4.5897752154385945,
        "x1": 4.002261757479043,
        "c1": 7.651626025054384e-07,
        "tan1": 0.0,
        "r0": 0.3,
        "x0": 0.3,
        "c0": 1e-09,
        "tan0": 0.0,
        "i_n": 229.70889393341446
      },
      {
        "id": 8,
        "from_node": 1,
        "to_node": 2,
        "from_status": 1,
        "to_status": 1,
        "r1": 2.6834000408740675,
        "x1": 1.383413217207251,
        "c1": 1.726645292853689e-07,
        "tan1": 0.0,
        "r0": 0.3,
        "x0": 0.3,
        "c0": 1e-09,
        "tan0": 0.0,
        "i_n": 115.12145950721482
      },
      {
        "id": 9,
        "from_node": 2,
        "to_node": 3,
        "from_status": 1,
        "to_status": 1,
        "r1": 1.0720021628945826,
        "x1": 4.6373781571403025,
        "c1": 8.289200487784194e-07,
        "tan1": 0.0,
        "r0": 0.3,
        "x0": 0.3,
        "c0": 1e-09,
        "tan0": 0.0,
        "i_n": 808.5858232353002
      },
      {
        "id": 10,
        "from_node": 3,
        "to_node": 4,
        "from_status": 1,
        "to_status": 1,
        "r1": 4.002239192714831,
        "x1": 0.9671780900962001,
        "c1": 3.0984995729953556e-07,
        "tan1": 0.0,
        "r0": 0.3,
        "x0": 0.3,
        "c0": 1e-09,
        "tan0": 0.0,
        "i_n": 630.7058463889988
      }
    ],
    "sym_load": [
      {
        "id": 11,
        "node": 4,
        "status": 1,
        "type": 2,
        "p_specified": -32519.50491711282,
        "q_specified": -2241.363002962802
      }
    ]
  }
}